Version 4
SHEET 1 1192 712
WIRE -144 -144 -320 -144
WIRE -80 -144 -144 -144
WIRE 112 -144 -80 -144
WIRE 224 -144 112 -144
WIRE -144 -112 -144 -144
WIRE -320 -96 -320 -144
WIRE 224 -96 224 -144
WIRE -144 -16 -144 -48
WIRE 576 0 336 0
WIRE 768 0 576 0
WIRE 832 0 768 0
WIRE 896 0 832 0
WIRE 576 16 576 0
WIRE 832 32 832 0
WIRE 112 48 112 -144
WIRE 224 48 224 -16
WIRE 336 48 336 0
WIRE 576 112 576 96
WIRE 576 112 384 112
WIRE 640 112 576 112
WIRE 832 112 832 96
WIRE 832 112 720 112
WIRE -256 128 -336 128
WIRE 832 160 832 112
WIRE 432 192 384 192
WIRE 560 192 512 192
WIRE 640 192 560 192
WIRE -336 208 -336 128
WIRE 64 256 0 256
WIRE 640 256 640 192
WIRE 560 272 560 192
WIRE 560 272 384 272
WIRE -336 336 -336 288
WIRE 112 368 112 336
WIRE -192 384 -336 384
WIRE 0 384 0 256
WIRE 0 384 -192 384
WIRE -336 432 -336 384
WIRE -80 512 -80 -144
WIRE 32 512 -80 512
WIRE 224 512 224 336
WIRE 224 512 112 512
WIRE 256 512 224 512
WIRE 336 512 336 336
WIRE 336 512 320 512
WIRE 464 512 336 512
WIRE 640 512 640 336
WIRE 640 512 528 512
WIRE 768 512 640 512
WIRE 864 512 768 512
WIRE 1056 512 944 512
WIRE 768 528 768 512
WIRE 1056 528 1056 512
WIRE -336 544 -336 512
WIRE 1056 656 1056 592
WIRE 768 672 768 592
FLAG -320 -16 0
FLAG 112 368 0
FLAG 832 160 0
FLAG 768 512 VOUT_NEG
FLAG 768 0 VOUT_POS
FLAG 768 672 0
FLAG -336 544 0
FLAG -144 -16 0
FLAG -336 336 0
FLAG -256 128 POS_SHDN
FLAG -192 384 NEG_SHDN
FLAG -144 -144 VIN
FLAG 1056 656 0
FLAG 1056 512 VOUT_NEG_FILT
SYMBOL PowerProducts\\LT3463 224 192 R0
SYMATTR InstName U1
SYMBOL voltage -320 -112 R0
WINDOW 123 0 0 Left 0
WINDOW 39 24 44 Left 2
SYMATTR SpiceLine Rser=2
SYMATTR InstName V1
SYMATTR Value 3.7
SYMBOL ind 16 528 R270
WINDOW 0 32 56 VTop 2
WINDOW 3 5 56 VBottom 2
SYMATTR InstName L2
SYMATTR Value 10µH
SYMATTR SpiceLine Ipk=300mA Rser=0.440
SYMBOL cap 320 496 R90
WINDOW 0 0 32 VBottom 2
WINDOW 3 32 32 VTop 2
SYMATTR InstName C1
SYMATTR Value 0.1µf
SYMBOL res 528 176 R90
WINDOW 0 0 56 VBottom 2
WINDOW 3 32 56 VTop 2
SYMATTR InstName R1
SYMATTR Value 41.2k
SYMBOL res 656 352 R180
WINDOW 0 36 76 Left 2
WINDOW 3 36 40 Left 2
SYMATTR InstName R2
SYMATTR Value 1Meg
SYMBOL LED 528 496 R90
WINDOW 0 0 32 VBottom 2
WINDOW 3 72 32 VTop 2
SYMATTR InstName D2
SYMATTR Value ZHCS400
SYMBOL cap -128 -48 R180
WINDOW 0 37 -51 Left 2
WINDOW 3 -7 -82 Left 2
SYMATTR InstName C2
SYMATTR Value 10µf
SYMATTR SpiceLine Rser=0.1
SYMBOL res 592 112 R180
WINDOW 0 36 76 Left 2
WINDOW 3 36 40 Left 2
SYMATTR InstName R3
SYMATTR Value 1Meg
SYMBOL res 736 96 R90
WINDOW 0 0 56 VBottom 2
WINDOW 3 32 56 VTop 2
SYMATTR InstName R4
SYMATTR Value 41.2k
SYMBOL cap 848 96 R180
WINDOW 0 24 56 Left 2
WINDOW 3 24 8 Left 2
SYMATTR InstName C3
SYMATTR Value 0.47µf
SYMBOL voltage -336 192 R0
WINDOW 0 -91 -13 Left 2
WINDOW 3 -517 79 Left 2
WINDOW 123 0 0 Left 0
WINDOW 39 -141 26 Left 2
SYMATTR InstName V2
SYMATTR Value PWL(0 0 0.005 0.0 0.0055 3.3 0.020 3.3)
SYMATTR SpiceLine Rser=5
SYMBOL cap 784 592 R180
WINDOW 0 24 56 Left 2
WINDOW 3 24 8 Left 2
SYMATTR InstName C4
SYMATTR Value 0.47µf
SYMBOL voltage -336 416 R0
WINDOW 0 -91 -13 Left 2
WINDOW 3 -515 80 Left 2
WINDOW 123 0 0 Left 0
WINDOW 39 -141 26 Left 2
SYMATTR InstName V3
SYMATTR Value PWL(0 0 0.010 0.0 0.0105 3.3 0.020 3.3 0.021 0.0)
SYMATTR SpiceLine Rser=5
SYMBOL cap 1072 592 R180
WINDOW 0 24 56 Left 2
WINDOW 3 24 8 Left 2
SYMATTR InstName C5
SYMATTR Value 1µf
SYMBOL res 960 496 R90
WINDOW 0 0 56 VBottom 2
WINDOW 3 32 56 VTop 2
SYMATTR InstName R6
SYMATTR Value 1000 Ohm
SYMBOL ind 208 -112 R0
SYMATTR InstName L1
SYMATTR Value 10µH
SYMATTR SpiceLine Ipk=300mA Rser=0.440
TEXT 384 -264 Left 2 !.MODEL ZHCS400 D IS=9.1e-8 N=.59 RS=250e-3 IKF=1.37e-3 XTI=2\n+EG=.58 CJO=101p M=.5231 VJ=.3905 Fc=.5 BV=60 IBV=100E-6\n+ISR=2.2E-6 NR=1.8
TEXT -352 696 Left 2 !.tran 0.030
TEXT -16 600 Left 2 ;LQH32CH100K23
