Version 4
SHEET 1 3804 1528
WIRE 0 -1072 -224 -1072
WIRE 368 -1072 320 -1072
WIRE -224 -1056 -224 -1072
WIRE 320 -1024 320 -1072
WIRE 1472 -896 1216 -896
WIRE 848 -880 752 -880
WIRE 1008 -880 912 -880
WIRE 1472 -784 1472 -896
WIRE 1472 -784 1440 -784
WIRE -16 -768 -160 -768
WIRE 752 -768 752 -880
WIRE 832 -768 752 -768
WIRE 1008 -768 1008 -880
WIRE 1008 -768 912 -768
WIRE 1216 -752 1216 -896
WIRE 1248 -752 1216 -752
WIRE 1568 -752 1440 -752
WIRE 1248 -720 1216 -720
WIRE 1472 -720 1440 -720
WIRE 1568 -720 1568 -752
WIRE 784 -640 592 -640
WIRE 1008 -640 1008 -768
WIRE 1008 -640 976 -640
WIRE 1104 -640 1008 -640
WIRE 1216 -640 1216 -720
WIRE 160 -608 -160 -608
WIRE 320 -608 160 -608
WIRE 752 -608 752 -768
WIRE 752 -608 320 -608
WIRE 784 -608 752 -608
WIRE 1088 -608 976 -608
WIRE 1472 -608 1472 -720
WIRE 1088 -592 1088 -608
WIRE -160 -576 -160 -608
WIRE 160 -576 160 -608
WIRE 784 -576 752 -576
WIRE 1008 -576 976 -576
WIRE 320 -544 320 -608
WIRE 752 -496 752 -576
WIRE 160 -464 160 -496
WIRE 320 -464 320 -480
WIRE 1008 -464 1008 -576
WIRE 1088 -464 1088 -512
WIRE 592 -448 592 -640
WIRE 2672 -384 2416 -384
WIRE 3328 -384 3072 -384
WIRE 1856 -272 1680 -272
WIRE 1936 -272 1856 -272
WIRE 2336 -272 2192 -272
WIRE 2448 -272 2336 -272
WIRE 2672 -272 2672 -384
WIRE 2672 -272 2640 -272
WIRE 2848 -272 2672 -272
WIRE 3008 -272 2928 -272
WIRE 3104 -272 3008 -272
WIRE 3328 -272 3328 -384
WIRE 3328 -272 3296 -272
WIRE 3504 -272 3328 -272
WIRE 1856 -256 1856 -272
WIRE 2416 -240 2416 -384
WIRE 2448 -240 2416 -240
WIRE 2768 -240 2640 -240
WIRE 3008 -240 3008 -272
WIRE 3072 -240 3072 -384
WIRE 3104 -240 3072 -240
WIRE 3408 -240 3296 -240
WIRE 3008 -224 3008 -240
WIRE 2448 -208 2416 -208
WIRE 2672 -208 2640 -208
WIRE 2768 -208 2768 -240
WIRE 3104 -208 3072 -208
WIRE 3328 -208 3296 -208
WIRE -80 -192 -160 -192
WIRE 160 -192 -16 -192
WIRE 3408 -192 3408 -240
WIRE 1856 -160 1856 -192
WIRE 1936 -160 1856 -160
WIRE 2288 -160 2192 -160
WIRE 2288 -144 2288 -160
WIRE 3008 -144 3008 -176
WIRE 560 -128 320 -128
WIRE 688 -128 624 -128
WIRE 720 -128 688 -128
WIRE 2416 -128 2416 -208
WIRE 3072 -128 3072 -208
WIRE -64 -96 -144 -96
WIRE 160 -96 0 -96
WIRE 2672 -96 2672 -208
WIRE 3328 -96 3328 -208
WIRE 416 -64 320 -64
WIRE 544 -64 416 -64
WIRE 1632 -48 1520 -48
WIRE 1776 -48 1712 -48
WIRE 1936 -48 1840 -48
WIRE 2320 -48 2192 -48
WIRE 160 -32 80 -32
WIRE 400 -32 320 -32
WIRE 544 64 544 -64
WIRE 272 320 16 320
WIRE 416 320 352 320
WIRE 464 320 416 320
WIRE 656 320 544 320
WIRE 16 352 16 320
WIRE 416 368 416 320
FLAG 544 144 0
FLAG 688 -128 vga_out
FLAG -144 -96 vga_vref
FLAG 416 -64 vga_mcu
FLAG 400 -32 vga_vref
FLAG 80 -32 vga_gain
FLAG 320 -944 0
FLAG 16 432 0
FLAG 416 432 0
FLAG 656 320 vga_gain
FLAG 2320 -48 vga_mcu
FLAG 2288 -144 0
FLAG 1520 -48 vga_out
FLAG 2336 -272 vout_env
FLAG 1680 -192 0
FLAG -224 -976 0
FLAG 368 -1072 RF
FLAG 2672 -96 0
FLAG 2768 -128 0
FLAG 2416 -128 vga_mcu
FLAG 3008 -144 0
FLAG 720 -48 0
FLAG 320 -464 0
FLAG 1104 -640 vga_in
FLAG 3504 -272 vout_env_filt
FLAG 1008 -464 0
FLAG 752 -496 vga_mcu
FLAG 592 -448 vga_vref
FLAG 1088 -464 0
FLAG 160 -464 0
FLAG -160 -496 0
FLAG -160 -688 0
FLAG -16 -688 0
FLAG -160 -192 vga_in
FLAG 1472 -608 0
FLAG 1568 -640 0
FLAG 1216 -640 vga_mcu
FLAG 3328 -96 0
FLAG 3072 -128 vga_mcu
FLAG 3408 -112 0
SYMBOL cap 624 -144 R90
WINDOW 0 0 32 VBottom 2
WINDOW 3 32 32 VTop 2
SYMATTR InstName C1
SYMATTR Value 1n
SYMBOL voltage 544 48 R0
WINDOW 123 0 0 Left 0
WINDOW 39 0 0 Left 0
SYMATTR InstName V1
SYMATTR Value 3v3
SYMBOL cap 0 -112 R90
WINDOW 0 0 32 VBottom 2
WINDOW 3 32 32 VTop 2
SYMATTR InstName C2
SYMATTR Value 1n
SYMBOL cap -16 -208 R90
WINDOW 0 0 32 VBottom 2
WINDOW 3 32 32 VTop 2
SYMATTR InstName C3
SYMATTR Value 1n
SYMBOL voltage 320 -1040 R0
WINDOW 123 0 0 Left 0
WINDOW 39 0 0 Left 0
SYMATTR InstName V2
SYMATTR Value SINE(0 5mV 8000000 40us 0 0 30)
SYMBOL voltage 16 336 R0
WINDOW 3 -279 157 Left 2
WINDOW 123 0 0 Left 0
WINDOW 39 0 0 Left 0
SYMATTR Value PWL(0 0 5us 0 5.1us 3.3 100us 3.3 101us 0)
SYMATTR InstName V3
SYMBOL cap 400 368 R0
SYMATTR InstName C4
SYMATTR Value 3.3n
SYMBOL res 368 304 R90
WINDOW 0 0 56 VBottom 2
WINDOW 3 32 56 VTop 2
SYMATTR InstName R1
SYMATTR Value 160000
SYMBOL AD8338 240 -112 R0
SYMATTR InstName U1
SYMBOL voltage 2768 -224 R0
WINDOW 123 0 0 Left 0
WINDOW 39 0 0 Left 0
SYMATTR InstName V4
SYMATTR Value 3
SYMBOL SpecialFunctions\\LTC5507 2064 -160 R0
SYMATTR InstName U2
SYMBOL cap 1840 -256 R0
SYMATTR InstName C6
SYMATTR Value 200pf
SYMBOL voltage 1680 -288 R0
WINDOW 123 0 0 Left 0
WINDOW 39 0 0 Left 0
SYMATTR InstName V6
SYMATTR Value 3.3
SYMBOL bv -224 -1072 R0
WINDOW 3 -97 160 Left 2
SYMATTR Value V=V(rf)*(1+sin(2*pi*1000K*time))
SYMATTR InstName B1
SYMBOL cap 3024 -176 R180
WINDOW 0 24 56 Left 2
WINDOW 3 24 8 Left 2
SYMATTR InstName C11
SYMATTR Value 100pf
SYMBOL res 2944 -288 R90
WINDOW 0 0 56 VBottom 2
WINDOW 3 32 56 VTop 2
SYMATTR InstName R6
SYMATTR Value 400
SYMBOL cap 1840 -64 R90
WINDOW 0 0 32 VBottom 2
WINDOW 3 32 32 VTop 2
SYMATTR InstName C5
SYMATTR Value 1n
SYMBOL res 704 -144 R0
SYMATTR InstName R2
SYMATTR Value 1Meg
SYMBOL OPA836 2544 -240 R0
SYMATTR InstName U3
SYMBOL res 176 -480 R180
WINDOW 0 36 76 Left 2
WINDOW 3 36 40 Left 2
SYMATTR InstName R4
SYMATTR Value 5000
SYMBOL cap 336 -480 R180
WINDOW 0 24 56 Left 2
WINDOW 3 24 8 Left 2
SYMATTR InstName C8
SYMATTR Value 98.7pf
SYMBOL res 1728 -64 R90
WINDOW 0 0 56 VBottom 2
WINDOW 3 32 56 VTop 2
SYMATTR InstName R5
SYMATTR Value 0
SYMBOL OPA836 880 -608 R0
SYMATTR InstName U4
SYMBOL res 928 -784 R90
WINDOW 0 0 56 VBottom 2
WINDOW 3 32 56 VTop 2
SYMATTR InstName R7
SYMATTR Value 100
SYMBOL cap 848 -864 R270
WINDOW 0 32 32 VTop 2
WINDOW 3 0 32 VBottom 2
SYMATTR InstName C9
SYMATTR Value 1p
SYMBOL voltage 1088 -608 R0
WINDOW 123 0 0 Left 0
WINDOW 39 0 0 Left 0
SYMATTR InstName V5
SYMATTR Value 3
SYMBOL bi -160 -576 R0
WINDOW 3 -226 136 Left 2
SYMATTR Value I=I(R3)*(1+sin(2*pi*1600K*time))
SYMATTR InstName B2
SYMBOL current -160 -768 R0
WINDOW 3 -205 -57 Left 2
WINDOW 123 0 0 Left 0
WINDOW 39 0 0 Left 0
SYMATTR Value SINE(0 0.0001 8000000 40us 0 0 18)
SYMATTR InstName I1
SYMBOL res -32 -784 R0
SYMATTR InstName R3
SYMATTR Value 1
SYMBOL voltage 1568 -736 R0
WINDOW 123 0 0 Left 0
WINDOW 39 0 0 Left 0
SYMATTR InstName V7
SYMATTR Value 3
SYMBOL OPA836 1344 -752 R0
SYMATTR InstName U5
SYMBOL res 560 304 R90
WINDOW 0 0 56 VBottom 2
WINDOW 3 32 56 VTop 2
SYMATTR InstName R8
SYMATTR Value 1
SYMBOL OPA836 3200 -240 R0
SYMATTR InstName U6
SYMBOL voltage 3408 -208 R0
WINDOW 123 0 0 Left 0
WINDOW 39 0 0 Left 0
SYMATTR InstName V8
SYMATTR Value 3
TEXT 1624 -488 Left 2 !.tran 0 0.001 0 5us
TEXT -32 -256 Left 2 ;1k input res., 2 pf cap.
TEXT 336 -256 Left 2 ;approx 40 Ohm max out res at 10 MHz
RECTANGLE Normal 80 -304 384 -800 2
